
 OpenBabel11192110553D

 15 14  0  0  0  0  0  0  0  0999 V2000
    2.0675    0.0475    1.8102 C   0  0  0  0  0  0  0  0  0  0  0  0
    1.3968   -0.0151    0.4410 C   0  0  0  0  0  0  0  0  0  0  0  0
    1.7506    0.8431   -0.1712 H   0  0  0  0  0  0  0  0  0  0  0  0
    1.6967   -0.9602   -0.0623 H   0  0  0  0  0  0  0  0  0  0  0  0
   -0.1297    0.0383    0.5698 C   0  0  0  0  0  0  0  0  0  0  0  0
   -0.4805   -0.8203    1.1838 H   0  0  0  0  0  0  0  0  0  0  0  0
   -0.4266    0.9838    1.0748 H   0  0  0  0  0  0  0  0  0  0  0  0
   -0.7994   -0.0245   -0.8017 C   0  0  0  0  0  0  0  0  0  0  0  0
   -0.4732    0.8342   -1.4265 H   0  0  0  0  0  0  0  0  0  0  0  0
   -0.5271   -0.9700   -1.3176 H   0  0  0  0  0  0  0  0  0  0  0  0
   -2.1856    0.0260   -0.6518 O   0  0  0  0  0  0  0  0  0  0  0  0
   -2.4729   -0.0122   -1.4374 *   0  0  0  0  0  0  0  0  0  0  0  0
    3.1703    0.0071    1.6868 H   0  0  0  0  0  0  0  0  0  0  0  0
    1.7480   -0.8126    2.4365 H   0  0  0  0  0  0  0  0  0  0  0  0
    1.8020    0.9942    2.3273 H   0  0  0  0  0  0  0  0  0  0  0  0
  1  2  1  0  0  0  0
  1 13  1  0  0  0  0
  1 14  1  0  0  0  0
  1 15  1  0  0  0  0
  2  3  1  0  0  0  0
  2  4  1  0  0  0  0
  2  5  1  0  0  0  0
  5  6  1  0  0  0  0
  5  7  1  0  0  0  0
  5  8  1  0  0  0  0
  8  9  1  0  0  0  0
  8 10  1  0  0  0  0
  8 11  1  0  0  0  0
 11 12  1  0  0  0  0
M  END
