
 OpenBabel11192109243D

 16 16  0  0  0  0  0  0  0  0999 V2000
    1.2991   -0.2518   -0.1161 C   0  0  0  0  0  0  0  0  0  0  0  0
    1.0931   -1.6310   -0.0573 C   0  0  0  0  0  0  0  0  0  0  0  0
   -0.2014   -2.1378    0.0342 C   0  0  0  0  0  0  0  0  0  0  0  0
   -1.2806   -1.2569    0.0616 C   0  0  0  0  0  0  0  0  0  0  0  0
   -1.0559    0.1193    0.0079 C   0  0  0  0  0  0  0  0  0  0  0  0
    0.2326    0.6478   -0.0725 C   0  0  0  0  0  0  0  0  0  0  0  0
    0.4574    2.1242   -0.1428 C   0  0  0  0  0  0  0  0  0  0  0  0
    2.5566    0.1958   -0.2414 F   0  0  0  0  0  0  0  0  0  0  0  0
    1.9499   -2.2974   -0.0870 H   0  0  0  0  0  0  0  0  0  0  0  0
   -0.3678   -3.2106    0.0788 H   0  0  0  0  0  0  0  0  0  0  0  0
   -2.2986   -1.6290    0.1233 H   0  0  0  0  0  0  0  0  0  0  0  0
   -2.1189    0.9372    0.0189 F   0  0  0  0  0  0  0  0  0  0  0  0
    0.9405    2.3914   -1.0880 H   0  0  0  0  0  0  0  0  0  0  0  0
    1.2784    2.5503    0.9357 O   0  0  0  0  0  0  0  0  0  0  0  0
   -0.4820    2.6817   -0.0772 H   0  0  0  0  0  0  0  0  0  0  0  0
    2.0875    2.4718    0.7080 *   0  0  0  0  0  0  0  0  0  0  0  0
  1  2  2  0  0  0  0
  1  8  1  0  0  0  0
  2  3  1  0  0  0  0
  2  9  1  0  0  0  0
  3  4  2  0  0  0  0
  3 10  1  0  0  0  0
  4  5  1  0  0  0  0
  4 11  1  0  0  0  0
  5  6  2  0  0  0  0
  5 12  1  0  0  0  0
  6  1  1  0  0  0  0
  6  7  1  0  0  0  0
  7 13  1  0  0  0  0
  7 14  1  0  0  0  0
  7 15  1  0  0  0  0
 14 16  1  0  0  0  0
M  END
