
 OpenBabel11192110573D

 12 11  0  0  0  0  0  0  0  0999 V2000
    0.9403    0.1269    1.3435 C   0  0  0  0  0  0  0  0  0  0  0  0
    0.2240    0.1001   -0.0033 C   0  0  0  0  0  0  0  0  0  0  0  0
    0.4764    1.0213   -0.5715 H   0  0  0  0  0  0  0  0  0  0  0  0
    0.6460   -1.1199   -0.8122 C   0  0  0  0  0  0  0  0  0  0  0  0
   -1.1556    0.0596    0.2051 O   0  0  0  0  0  0  0  0  0  0  0  0
   -1.4852   -0.0326   -0.4569 *   0  0  0  0  0  0  0  0  0  0  0  0
    2.0402    0.1760    1.1943 H   0  0  0  0  0  0  0  0  0  0  0  0
    0.6948   -0.7835    1.9317 H   0  0  0  0  0  0  0  0  0  0  0  0
    0.6233    1.0216    1.9204 H   0  0  0  0  0  0  0  0  0  0  0  0
    1.7404   -1.1020   -1.0029 H   0  0  0  0  0  0  0  0  0  0  0  0
    0.1127   -1.1362   -1.7864 H   0  0  0  0  0  0  0  0  0  0  0  0
    0.4649   -1.7581    0.1155 H   0  0  0  0  0  0  0  0  0  0  0  0
  1  2  1  0  0  0  0
  1  7  1  0  0  0  0
  1  8  1  0  0  0  0
  1  9  1  0  0  0  0
  2  3  1  0  0  0  0
  2  4  1  0  0  0  0
  2  5  1  0  0  0  0
  4 10  1  0  0  0  0
  4 11  1  0  0  0  0
  4 12  1  0  0  0  0
  5  6  1  0  0  0  0
M  END
