
 OpenBabel11192109223D

 16 16  0  0  0  0  0  0  0  0999 V2000
    1.3268   -0.2414   -0.0769 C   0  0  0  0  0  0  0  0  0  0  0  0
    1.1155   -1.6221   -0.0348 C   0  0  0  0  0  0  0  0  0  0  0  0
   -0.1819   -2.1303    0.0197 C   0  0  0  0  0  0  0  0  0  0  0  0
   -1.2673   -1.2561    0.0269 C   0  0  0  0  0  0  0  0  0  0  0  0
   -1.0484    0.1191   -0.0188 C   0  0  0  0  0  0  0  0  0  0  0  0
    0.2426    0.6492   -0.0595 C   0  0  0  0  0  0  0  0  0  0  0  0
    0.4562    2.1323   -0.1400 C   0  0  0  0  0  0  0  0  0  0  0  0
    2.3429    0.1479   -0.1136 H   0  0  0  0  0  0  0  0  0  0  0  0
    1.9666   -2.2985   -0.0415 H   0  0  0  0  0  0  0  0  0  0  0  0
   -0.3457   -3.2037    0.0564 H   0  0  0  0  0  0  0  0  0  0  0  0
   -2.2834   -1.6344    0.0666 H   0  0  0  0  0  0  0  0  0  0  0  0
   -2.1120    0.9366   -0.0293 F   0  0  0  0  0  0  0  0  0  0  0  0
    0.7538    2.4109   -1.1558 H   0  0  0  0  0  0  0  0  0  0  0  0
    1.4850    2.5342    0.7571 O   0  0  0  0  0  0  0  0  0  0  0  0
   -0.4482    2.6895    0.1215 H   0  0  0  0  0  0  0  0  0  0  0  0
    2.0875    2.4718    0.7080 *   0  0  0  0  0  0  0  0  0  0  0  0
  1  2  2  0  0  0  0
  1  8  1  0  0  0  0
  2  3  1  0  0  0  0
  2  9  1  0  0  0  0
  3  4  2  0  0  0  0
  3 10  1  0  0  0  0
  4  5  1  0  0  0  0
  4 11  1  0  0  0  0
  5  6  2  0  0  0  0
  5 12  1  0  0  0  0
  6  1  1  0  0  0  0
  6  7  1  0  0  0  0
  7 13  1  0  0  0  0
  7 14  1  0  0  0  0
  7 15  1  0  0  0  0
 14 16  1  0  0  0  0
M  END
