
 OpenBabel11192109243D

 16 16  0  0  0  0  0  0  0  0999 V2000
    1.3232   -0.2408   -0.0800 C   0  0  0  0  0  0  0  0  0  0  0  0
    1.1347   -1.6236   -0.0369 C   0  0  0  0  0  0  0  0  0  0  0  0
   -0.1524   -2.1464    0.0231 C   0  0  0  0  0  0  0  0  0  0  0  0
   -1.2488   -1.2850    0.0332 C   0  0  0  0  0  0  0  0  0  0  0  0
   -1.0617    0.1026   -0.0151 C   0  0  0  0  0  0  0  0  0  0  0  0
    0.2301    0.6473   -0.0590 C   0  0  0  0  0  0  0  0  0  0  0  0
    0.4986    2.1273   -0.1428 C   0  0  0  0  0  0  0  0  0  0  0  0
    2.3366    0.1571   -0.1207 H   0  0  0  0  0  0  0  0  0  0  0  0
    1.9957   -2.2870   -0.0468 H   0  0  0  0  0  0  0  0  0  0  0  0
   -0.3034   -3.2218    0.0612 H   0  0  0  0  0  0  0  0  0  0  0  0
   -2.2521   -1.7007    0.0769 H   0  0  0  0  0  0  0  0  0  0  0  0
   -2.4830    1.0867   -0.0302 Cl  0  0  0  0  0  0  0  0  0  0  0  0
    0.8330    2.3835   -1.1533 H   0  0  0  0  0  0  0  0  0  0  0  0
    1.5250    2.4944    0.7742 O   0  0  0  0  0  0  0  0  0  0  0  0
   -0.3733    2.7397    0.0942 H   0  0  0  0  0  0  0  0  0  0  0  0
    2.0875    2.4718    0.7080 *   0  0  0  0  0  0  0  0  0  0  0  0
  1  2  2  0  0  0  0
  1  8  1  0  0  0  0
  2  3  1  0  0  0  0
  2  9  1  0  0  0  0
  3  4  2  0  0  0  0
  3 10  1  0  0  0  0
  4  5  1  0  0  0  0
  4 11  1  0  0  0  0
  5  6  2  0  0  0  0
  5 12  1  0  0  0  0
  6  1  1  0  0  0  0
  6  7  1  0  0  0  0
  7 13  1  0  0  0  0
  7 14  1  0  0  0  0
  7 15  1  0  0  0  0
 14 16  1  0  0  0  0
M  END
