lig.pdb
 OpenBabel11192112133D

 41 44  0  0  0  0  0  0  0  0999 V2000
    6.0640   -0.3510   25.9180 C   0  0  0  0  0  0  0  0  0  0  0  0
    6.7890    0.1300   24.8270 C   0  0  0  0  0  0  0  0  0  0  0  0
    8.2270   -0.2960   22.8080 C   0  0  0  0  0  0  0  0  0  0  0  0
    7.4210   -2.1480   24.2920 C   0  0  0  0  0  0  0  0  0  0  0  0
    9.0450    0.8060   22.8630 C   0  0  0  0  0  0  0  0  0  0  0  0
    8.6830   -1.1990   19.1500 C   0  0  0  0  0  0  0  0  0  0  0  0
    9.7920   -1.8440   18.5970 C   0  0  0  0  0  0  0  0  0  0  0  0
    9.6240   -2.5450   17.4000 C   0  0  0  0  0  0  0  0  0  0  0  0
    8.3650   -2.5690   16.7970 C   0  0  0  0  0  0  0  0  0  0  0  0
    7.4510   -1.2990   18.4730 C   0  0  0  0  0  0  0  0  0  0  0  0
    9.7660    1.2630   21.7280 C   0  0  0  0  0  0  0  0  0  0  0  0
    6.0130   -1.7150   26.2130 C   0  0  0  0  0  0  0  0  0  0  0  0
    7.4710   -0.7760   23.9930 C   0  0  0  0  0  0  0  0  0  0  0  0
    6.7020   -2.6080   25.3910 C   0  0  0  0  0  0  0  0  0  0  0  0
    8.0710   -1.0360   21.5460 C   0  0  0  0  0  0  0  0  0  0  0  0
    9.6150    0.5830   20.5430 C   0  0  0  0  0  0  0  0  0  0  0  0
    8.7920   -0.5080   20.4180 N   0  0  0  0  0  0  0  0  0  0  0  0
    7.2990   -1.9570   17.3230 N   0  0  0  0  0  0  0  0  0  0  0  0
    7.3730   -2.0260   21.3990 O   0  0  0  0  0  0  0  0  0  0  0  0
    5.2090    0.7690   26.9420 Cl  0  0  0  0  0  0  0  0  0  0  0  0
    6.7910    1.1970   24.6080 H   0  0  0  0  0  0  0  0  0  0  0  0
    7.9330   -2.8420   23.6350 H   0  0  0  0  0  0  0  0  0  0  0  0
    9.1520    1.3620   23.7950 H   0  0  0  0  0  0  0  0  0  0  0  0
   10.7450   -1.8160   19.1250 H   0  0  0  0  0  0  0  0  0  0  0  0
   10.4460   -3.0670   16.9320 H   0  0  0  0  0  0  0  0  0  0  0  0
    8.2000   -3.0890   15.8540 H   0  0  0  0  0  0  0  0  0  0  0  0
    6.5580   -0.8420   18.8990 H   0  0  0  0  0  0  0  0  0  0  0  0
    5.4440   -2.0660   27.0670 H   0  0  0  0  0  0  0  0  0  0  0  0
    6.6630   -3.6730   25.5970 H   0  0  0  0  0  0  0  0  0  0  0  0
   10.1340    0.8950   19.6430 H   0  0  0  0  0  0  0  0  0  0  0  0
   10.6510    2.4510   21.8360 C   0  0  0  0  0  0  0  0  0  0  0  0
   11.5320    2.5900   22.8540 C   0  0  0  0  0  0  0  0  0  0  0  0
   12.3420    3.6950   22.9270 N   0  0  0  0  0  0  0  0  0  0  0  0
   12.3280    4.7410   22.0320 C   0  0  0  0  0  0  0  0  0  0  0  0
   11.4360    4.5950   21.0360 N   0  0  0  0  0  0  0  0  0  0  0  0
   10.5690    3.5460   20.8320 C   0  0  0  0  0  0  0  0  0  0  0  0
   13.0600    5.6930   22.1420 O   0  0  0  0  0  0  0  0  0  0  0  0
    9.8340    3.6250   19.8730 O   0  0  0  0  0  0  0  0  0  0  0  0
   11.6470    1.8340   23.6330 H   0  0  0  0  0  0  0  0  0  0  0  0
   13.0200    3.8750   23.6440 H   0  0  0  0  0  0  0  0  0  0  0  0
   11.3910    5.3400   20.3700 H   0  0  0  0  0  0  0  0  0  0  0  0
  1  2  1  0  0  0  0
  1 12  2  0  0  0  0
  1 20  1  0  0  0  0
  2 13  2  0  0  0  0
  2 21  1  0  0  0  0
  3  5  2  0  0  0  0
  3 13  1  0  0  0  0
  3 15  1  0  0  0  0
  4 13  1  0  0  0  0
  4 14  2  0  0  0  0
  4 22  1  0  0  0  0
  5 11  1  0  0  0  0
  5 23  1  0  0  0  0
  6  7  2  0  0  0  0
  6 10  1  0  0  0  0
  6 17  1  0  0  0  0
  7  8  1  0  0  0  0
  7 24  1  0  0  0  0
  8  9  2  0  0  0  0
  8 25  1  0  0  0  0
  9 18  1  0  0  0  0
  9 26  1  0  0  0  0
 10 18  2  0  0  0  0
 10 27  1  0  0  0  0
 11 16  2  0  0  0  0
 11 31  1  0  0  0  0
 12 14  1  0  0  0  0
 12 28  1  0  0  0  0
 14 29  1  0  0  0  0
 15 17  1  0  0  0  0
 15 19  2  0  0  0  0
 16 17  1  0  0  0  0
 16 30  1  0  0  0  0
 31 32  2  0  0  0  0
 31 36  1  0  0  0  0
 32 33  1  0  0  0  0
 32 39  1  0  0  0  0
 33 34  1  0  0  0  0
 33 40  1  0  0  0  0
 34 35  1  0  0  0  0
 34 37  2  0  0  0  0
 35 36  1  0  0  0  0
 35 41  1  0  0  0  0
 36 38  2  0  0  0  0
M  END
>  <COMPND>
    lig.pdb

$$$$
