
 OpenBabel11192109193D

 19 19  0  0  0  0  0  0  0  0999 V2000
    1.2453   -0.2668   -0.1184 C   0  0  0  0  0  0  0  0  0  0  0  0
    1.0311   -1.6447   -0.0661 C   0  0  0  0  0  0  0  0  0  0  0  0
   -0.2654   -2.1468    0.0269 C   0  0  0  0  0  0  0  0  0  0  0  0
   -1.3530   -1.2732    0.0674 C   0  0  0  0  0  0  0  0  0  0  0  0
   -1.1578    0.1192    0.0157 C   0  0  0  0  0  0  0  0  0  0  0  0
    0.1637    0.6316   -0.0778 C   0  0  0  0  0  0  0  0  0  0  0  0
    0.4697    2.1093   -0.1403 C   0  0  0  0  0  0  0  0  0  0  0  0
    2.2609    0.1034   -0.1915 H   0  0  0  0  0  0  0  0  0  0  0  0
    1.8728   -2.3245   -0.0981 H   0  0  0  0  0  0  0  0  0  0  0  0
   -0.4289   -3.2161    0.0673 H   0  0  0  0  0  0  0  0  0  0  0  0
   -2.3509   -1.6880    0.1394 H   0  0  0  0  0  0  0  0  0  0  0  0
   -2.3616    1.0233    0.0622 C   0  0  0  0  0  0  0  0  0  0  0  0
    1.0134    2.3306   -1.0829 H   0  0  0  0  0  0  0  0  0  0  0  0
    1.2699    2.4720    0.9441 O   0  0  0  0  0  0  0  0  0  0  0  0
   -0.4380    2.7426   -0.1268 H   0  0  0  0  0  0  0  0  0  0  0  0
    2.0875    2.4718    0.7080 *   0  0  0  0  0  0  0  0  0  0  0  0
   -3.3086    0.4474    0.1365 H   0  0  0  0  0  0  0  0  0  0  0  0
   -2.4088    1.6358   -0.8626 H   0  0  0  0  0  0  0  0  0  0  0  0
   -2.2982    1.6892    0.9483 H   0  0  0  0  0  0  0  0  0  0  0  0
  1  2  2  0  0  0  0
  1  8  1  0  0  0  0
  2  3  1  0  0  0  0
  2  9  1  0  0  0  0
  3  4  2  0  0  0  0
  3 10  1  0  0  0  0
  4  5  1  0  0  0  0
  4 11  1  0  0  0  0
  5  6  2  0  0  0  0
  5 12  1  0  0  0  0
  6  1  1  0  0  0  0
  6  7  1  0  0  0  0
  7 13  1  0  0  0  0
  7 14  1  0  0  0  0
  7 15  1  0  0  0  0
 12 17  1  0  0  0  0
 12 18  1  0  0  0  0
 12 19  1  0  0  0  0
 14 16  1  0  0  0  0
M  END
